NOVO24/1726535/GD.dss
! GERACAO DISTRIBUIDA — gerada de UGBT_tab e UGMT_tab
! Unidades com potencia nula sao omitidas (gerariam NaN).
! 7 unidades descartadas por potencia nula.
! 58 unidades de BT realocadas para o secundario do transformador (rede secundaria nao modelada).
! 0 unidades descartadas por ponto de conexao ausente da rede.
! irradiance=1 — ver o docstring: 1,0 e meio-dia de ceu claro, nao a ponta de carga.
! 1 barras tiveram a GD limitada a capacidade do transformador (22 kW cortados).
! inversores em pf=1 — ver o docstring de _pv: 0,92 e capacidade exigida pelo PRODIST, nao despacho.
! 0 unidades de MT ligadas pelo PAC da carga (casadas por CEG_GD): o PAC da UGMT nao existe na SSDMT.
New PVSystem.GD_3dae54d7d5155878841370be5c8258fe4bb92ad08c6c56073c557e9972ff6716_1 phases=1 bus1=node_419162609.1.4 conn=wye kv=0.1200 pf=1 pmpp=1.08 kva=1.08 irradiance=1 temperature=25 %cutin=20 %cutout=20 effcurve=MyEff P-TCurve=MyPvsT Daily=IRRAD_DIA TDaily=TEMP_DIA
New PVSystem.GD_3dae54d7d5155878841370be5c8258fe4bb92ad08c6c56073c557e9972ff6716_2 phases=1 bus1=node_419162609.2.4 conn=wye kv=0.1200 pf=1 pmpp=1.08 kva=1.08 irradiance=1 temperature=25 %cutin=20 %cutout=20 effcurve=MyEff P-TCurve=MyPvsT Daily=IRRAD_DIA TDaily=TEMP_DIA
New PVSystem.GD_be27b4b26ff6c6202b33de8d3f5dd5a0b2dc925440aaf3020a45b8ee5a01a214_1 phases=1 bus1=node_419162609.1.4 conn=wye kv=0.1200 pf=1 pmpp=0.42 kva=0.42 irradiance=1 temperature=25 %cutin=20 %cutout=20 effcurve=MyEff P-TCurve=MyPvsT Daily=IRRAD_DIA TDaily=TEMP_DIA
New PVSystem.GD_be27b4b26ff6c6202b33de8d3f5dd5a0b2dc925440aaf3020a45b8ee5a01a214_2 phases=1 bus1=node_419162609.2.4 conn=wye kv=0.1200 pf=1 pmpp=0.42 kva=0.42 irradiance=1 temperature=25 %cutin=20 %cutout=20 effcurve=MyEff P-TCurve=MyPvsT Daily=IRRAD_DIA TDaily=TEMP_DIA
New PVSystem.GD_3b4a365405a8fcb8045b6adfce987b137a1996ff6c3ea0d3ad51c37329896379_1 phases=1 bus1=node_419372808.1.4 conn=wye kv=0.1200 pf=1 pmpp=1.18 kva=1.18 irradiance=1 temperature=25 %cutin=20 %cutout=20 effcurve=MyEff P-TCurve=MyPvsT Daily=IRRAD_DIA TDaily=TEMP_DIA
New PVSystem.GD_3b4a365405a8fcb8045b6adfce987b137a1996ff6c3ea0d3ad51c37329896379_2 phases=1 bus1=node_419372808.2.4 conn=wye kv=0.1200 pf=1 pmpp=1.18 kva=1.18 irradiance=1 temperature=25 %cutin=20 %cutout=20 effcurve=MyEff P-TCurve=MyPvsT Daily=IRRAD_DIA TDaily=TEMP_DIA
New PVSystem.GD_d8e1fe2421de1b3a0b6936ec1ec46ee1f84bb08ca80a1646383dee9788fa2f95_1 phases=1 bus1=node_419372808.1.4 conn=wye kv=0.1200 pf=1 pmpp=1.63 kva=1.63 irradiance=1 temperature=25 %cutin=20 %cutout=20 effcurve=MyEff P-TCurve=MyPvsT Daily=IRRAD_DIA TDaily=TEMP_DIA
New PVSystem.GD_d8e1fe2421de1b3a0b6936ec1ec46ee1f84bb08ca80a1646383dee9788fa2f95_2 phases=1 bus1=node_419372808.2.4 conn=wye kv=0.1200 pf=1 pmpp=1.63 kva=1.63 irradiance=1 temperature=25 %cutin=20 %cutout=20 effcurve=MyEff P-TCurve=MyPvsT Daily=IRRAD_DIA TDaily=TEMP_DIA
New PVSystem.GD_af737069306cad0f045215e2dea2bf24f0d1456e6400d4024c4b1fad2f2a04eb_1 phases=1 bus1=node_419372808.1.4 conn=wye kv=0.1200 pf=1 pmpp=0.46 kva=0.46 irradiance=1 temperature=25 %cutin=20 %cutout=20 effcurve=MyEff P-TCurve=MyPvsT Daily=IRRAD_DIA TDaily=TEMP_DIA
New PVSystem.GD_af737069306cad0f045215e2dea2bf24f0d1456e6400d4024c4b1fad2f2a04eb_2 phases=1 bus1=node_419372808.2.4 conn=wye kv=0.1200 pf=1 pmpp=0.46 kva=0.46 irradiance=1 temperature=25 %cutin=20 %cutout=20 effcurve=MyEff P-TCurve=MyPvsT Daily=IRRAD_DIA TDaily=TEMP_DIA
New PVSystem.GD_00160c496d1474ca4029d2a5047d4b2f434796d1f328930bd584656ce7bd0481_1 phases=1 bus1=node_461844351.1.4 conn=wye kv=0.1200 pf=1 pmpp=1.16 kva=1.16 irradiance=1 temperature=25 %cutin=20 %cutout=20 effcurve=MyEff P-TCurve=MyPvsT Daily=IRRAD_DIA TDaily=TEMP_DIA
New PVSystem.GD_00160c496d1474ca4029d2a5047d4b2f434796d1f328930bd584656ce7bd0481_2 phases=1 bus1=node_461844351.2.4 conn=wye kv=0.1200 pf=1 pmpp=1.16 kva=1.16 irradiance=1 temperature=25 %cutin=20 %cutout=20 effcurve=MyEff P-TCurve=MyPvsT Daily=IRRAD_DIA TDaily=TEMP_DIA
New PVSystem.GD_6f47f6c754121b61f07d41493f54e6c0a4430c2994fbd70966982eaaf096dfee_1 phases=1 bus1=node_419160341.1.4 conn=wye kv=0.1200 pf=1 pmpp=0.33 kva=0.33 irradiance=1 temperature=25 %cutin=20 %cutout=20 effcurve=MyEff P-TCurve=MyPvsT Daily=IRRAD_DIA TDaily=TEMP_DIA
New PVSystem.GD_6f47f6c754121b61f07d41493f54e6c0a4430c2994fbd70966982eaaf096dfee_2 phases=1 bus1=node_419160341.2.4 conn=wye kv=0.1200 pf=1 pmpp=0.33 kva=0.33 irradiance=1 temperature=25 %cutin=20 %cutout=20 effcurve=MyEff P-TCurve=MyPvsT Daily=IRRAD_DIA TDaily=TEMP_DIA
New PVSystem.GD_6bfc99c8a93227a3bdb5ba2a5e7782da1e60908ef52e1e40b6ce3a241339a887_1 phases=1 bus1=node_419162267.1.4 conn=wye kv=0.1200 pf=1 pmpp=1.46 kva=1.46 irradiance=1 temperature=25 %cutin=20 %cutout=20 effcurve=MyEff P-TCurve=MyPvsT Daily=IRRAD_DIA TDaily=TEMP_DIA
New PVSystem.GD_6bfc99c8a93227a3bdb5ba2a5e7782da1e60908ef52e1e40b6ce3a241339a887_2 phases=1 bus1=node_419162267.2.4 conn=wye kv=0.1200 pf=1 pmpp=1.46 kva=1.46 irradiance=1 temperature=25 %cutin=20 %cutout=20 effcurve=MyEff P-TCurve=MyPvsT Daily=IRRAD_DIA TDaily=TEMP_DIA
New PVSystem.GD_0ba7e81595cd3a1170c0caca55ad4676719e49173be82c6ef701ef87388d7898_1 phases=1 bus1=node_419162267.1.4 conn=wye kv=0.1200 pf=1 pmpp=1.48 kva=1.48 irradiance=1 temperature=25 %cutin=20 %cutout=20 effcurve=MyEff P-TCurve=MyPvsT Daily=IRRAD_DIA TDaily=TEMP_DIA
New PVSystem.GD_0ba7e81595cd3a1170c0caca55ad4676719e49173be82c6ef701ef87388d7898_2 phases=1 bus1=node_419162267.2.4 conn=wye kv=0.1200 pf=1 pmpp=1.48 kva=1.48 irradiance=1 temperature=25 %cutin=20 %cutout=20 effcurve=MyEff P-TCurve=MyPvsT Daily=IRRAD_DIA TDaily=TEMP_DIA
New PVSystem.GD_acf3c872b7dd4860ae15ca1dce92b57412b5e14b1f79c2e96eb3f93c2ffe01a2_1 phases=1 bus1=node_419162267.1.4 conn=wye kv=0.1200 pf=1 pmpp=0.71 kva=0.71 irradiance=1 temperature=25 %cutin=20 %cutout=20 effcurve=MyEff P-TCurve=MyPvsT Daily=IRRAD_DIA TDaily=TEMP_DIA
New PVSystem.GD_acf3c872b7dd4860ae15ca1dce92b57412b5e14b1f79c2e96eb3f93c2ffe01a2_2 phases=1 bus1=node_419162267.2.4 conn=wye kv=0.1200 pf=1 pmpp=0.71 kva=0.71 irradiance=1 temperature=25 %cutin=20 %cutout=20 effcurve=MyEff P-TCurve=MyPvsT Daily=IRRAD_DIA TDaily=TEMP_DIA
New PVSystem.GD_10d8cdb69e484158debba81dd7dd6915e6ee0ca0ae1c8c4b83d73b8f182c7474_1 phases=1 bus1=node_419162267.1.4 conn=wye kv=0.1200 pf=1 pmpp=1.41 kva=1.41 irradiance=1 temperature=25 %cutin=20 %cutout=20 effcurve=MyEff P-TCurve=MyPvsT Daily=IRRAD_DIA TDaily=TEMP_DIA
New PVSystem.GD_10d8cdb69e484158debba81dd7dd6915e6ee0ca0ae1c8c4b83d73b8f182c7474_2 phases=1 bus1=node_419162267.2.4 conn=wye kv=0.1200 pf=1 pmpp=1.41 kva=1.41 irradiance=1 temperature=25 %cutin=20 %cutout=20 effcurve=MyEff P-TCurve=MyPvsT Daily=IRRAD_DIA TDaily=TEMP_DIA
New PVSystem.GD_4eb20dfecb61b384e07eb82e2fda32919dbcdf516326c683cfe193cd1fbab2c5_1 phases=1 bus1=node_419162267.1.4 conn=wye kv=0.1200 pf=1 pmpp=1.44 kva=1.44 irradiance=1 temperature=25 %cutin=20 %cutout=20 effcurve=MyEff P-TCurve=MyPvsT Daily=IRRAD_DIA TDaily=TEMP_DIA
New PVSystem.GD_4eb20dfecb61b384e07eb82e2fda32919dbcdf516326c683cfe193cd1fbab2c5_2 phases=1 bus1=node_419162267.2.4 conn=wye kv=0.1200 pf=1 pmpp=1.44 kva=1.44 irradiance=1 temperature=25 %cutin=20 %cutout=20 effcurve=MyEff P-TCurve=MyPvsT Daily=IRRAD_DIA TDaily=TEMP_DIA
New PVSystem.GD_63c4e08285a9be05713ebd42913bee5af4f15d7ef6716e64c6a9215ab1d98376_1 phases=1 bus1=node_419160284.1.4 conn=wye kv=0.1200 pf=1 pmpp=0.43 kva=0.43 irradiance=1 temperature=25 %cutin=20 %cutout=20 effcurve=MyEff P-TCurve=MyPvsT Daily=IRRAD_DIA TDaily=TEMP_DIA
New PVSystem.GD_63c4e08285a9be05713ebd42913bee5af4f15d7ef6716e64c6a9215ab1d98376_2 phases=1 bus1=node_419160284.2.4 conn=wye kv=0.1200 pf=1 pmpp=0.43 kva=0.43 irradiance=1 temperature=25 %cutin=20 %cutout=20 effcurve=MyEff P-TCurve=MyPvsT Daily=IRRAD_DIA TDaily=TEMP_DIA
New PVSystem.GD_0969091f9b61366a54dcc7f11c639772799d58d6ab7daddb583ca8c57a2f9f33_1 phases=1 bus1=node_419160284.1.4 conn=wye kv=0.1200 pf=1 pmpp=0.29 kva=0.29 irradiance=1 temperature=25 %cutin=20 %cutout=20 effcurve=MyEff P-TCurve=MyPvsT Daily=IRRAD_DIA TDaily=TEMP_DIA
New PVSystem.GD_0969091f9b61366a54dcc7f11c639772799d58d6ab7daddb583ca8c57a2f9f33_2 phases=1 bus1=node_419160284.2.4 conn=wye kv=0.1200 pf=1 pmpp=0.29 kva=0.29 irradiance=1 temperature=25 %cutin=20 %cutout=20 effcurve=MyEff P-TCurve=MyPvsT Daily=IRRAD_DIA TDaily=TEMP_DIA
New PVSystem.GD_1dc42456f1ee3afd2bb29de0fa6a9bdc1b0762f6b979a4e06295322994fea790_1 phases=1 bus1=node_419194578.1.4 conn=wye kv=0.1270 pf=1 pmpp=0.31 kva=0.31 irradiance=1 temperature=25 %cutin=20 %cutout=20 effcurve=MyEff P-TCurve=MyPvsT Daily=IRRAD_DIA TDaily=TEMP_DIA
New PVSystem.GD_1dc42456f1ee3afd2bb29de0fa6a9bdc1b0762f6b979a4e06295322994fea790_2 phases=1 bus1=node_419194578.2.4 conn=wye kv=0.1270 pf=1 pmpp=0.31 kva=0.31 irradiance=1 temperature=25 %cutin=20 %cutout=20 effcurve=MyEff P-TCurve=MyPvsT Daily=IRRAD_DIA TDaily=TEMP_DIA
New PVSystem.GD_1dc42456f1ee3afd2bb29de0fa6a9bdc1b0762f6b979a4e06295322994fea790_3 phases=1 bus1=node_419194578.3.4 conn=wye kv=0.1270 pf=1 pmpp=0.31 kva=0.31 irradiance=1 temperature=25 %cutin=20 %cutout=20 effcurve=MyEff P-TCurve=MyPvsT Daily=IRRAD_DIA TDaily=TEMP_DIA
New PVSystem.GD_23d6ec12246805a2a8d309387e065a7ff1e473ed587776f706ed6ad21165c6e4_1 phases=1 bus1=node_419194578.1.4 conn=wye kv=0.1270 pf=1 pmpp=0.50 kva=0.50 irradiance=1 temperature=25 %cutin=20 %cutout=20 effcurve=MyEff P-TCurve=MyPvsT Daily=IRRAD_DIA TDaily=TEMP_DIA
New PVSystem.GD_23d6ec12246805a2a8d309387e065a7ff1e473ed587776f706ed6ad21165c6e4_2 phases=1 bus1=node_419194578.2.4 conn=wye kv=0.1270 pf=1 pmpp=0.50 kva=0.50 irradiance=1 temperature=25 %cutin=20 %cutout=20 effcurve=MyEff P-TCurve=MyPvsT Daily=IRRAD_DIA TDaily=TEMP_DIA
New PVSystem.GD_23d6ec12246805a2a8d309387e065a7ff1e473ed587776f706ed6ad21165c6e4_3 phases=1 bus1=node_419194578.3.4 conn=wye kv=0.1270 pf=1 pmpp=0.50 kva=0.50 irradiance=1 temperature=25 %cutin=20 %cutout=20 effcurve=MyEff P-TCurve=MyPvsT Daily=IRRAD_DIA TDaily=TEMP_DIA
New PVSystem.GD_3581a2efacd1b630cee01381c1eac6ef5f66618ea1d6d094c5c3312d7f7dd3f8_1 phases=1 bus1=node_419194578.1.4 conn=wye kv=0.1270 pf=1 pmpp=3.91 kva=3.91 irradiance=1 temperature=25 %cutin=20 %cutout=20 effcurve=MyEff P-TCurve=MyPvsT Daily=IRRAD_DIA TDaily=TEMP_DIA
New PVSystem.GD_3581a2efacd1b630cee01381c1eac6ef5f66618ea1d6d094c5c3312d7f7dd3f8_2 phases=1 bus1=node_419194578.2.4 conn=wye kv=0.1270 pf=1 pmpp=3.91 kva=3.91 irradiance=1 temperature=25 %cutin=20 %cutout=20 effcurve=MyEff P-TCurve=MyPvsT Daily=IRRAD_DIA TDaily=TEMP_DIA
New PVSystem.GD_3581a2efacd1b630cee01381c1eac6ef5f66618ea1d6d094c5c3312d7f7dd3f8_3 phases=1 bus1=node_419194578.3.4 conn=wye kv=0.1270 pf=1 pmpp=3.91 kva=3.91 irradiance=1 temperature=25 %cutin=20 %cutout=20 effcurve=MyEff P-TCurve=MyPvsT Daily=IRRAD_DIA TDaily=TEMP_DIA
New PVSystem.GD_78775d579164acf8f8dfe02063bf317d92ba599ab5941fce772345e1851ef574_1 phases=1 bus1=node_419370801.1.4 conn=wye kv=0.1200 pf=1 pmpp=1.66 kva=1.66 irradiance=1 temperature=25 %cutin=20 %cutout=20 effcurve=MyEff P-TCurve=MyPvsT Daily=IRRAD_DIA TDaily=TEMP_DIA
New PVSystem.GD_78775d579164acf8f8dfe02063bf317d92ba599ab5941fce772345e1851ef574_2 phases=1 bus1=node_419370801.2.4 conn=wye kv=0.1200 pf=1 pmpp=1.66 kva=1.66 irradiance=1 temperature=25 %cutin=20 %cutout=20 effcurve=MyEff P-TCurve=MyPvsT Daily=IRRAD_DIA TDaily=TEMP_DIA
New PVSystem.GD_3cde70d543d0626a6342343bf9148c672e8a028537cb026eaa0eb51501d21b83_1 phases=1 bus1=node_419370801.1.4 conn=wye kv=0.1200 pf=1 pmpp=0.99 kva=0.99 irradiance=1 temperature=25 %cutin=20 %cutout=20 effcurve=MyEff P-TCurve=MyPvsT Daily=IRRAD_DIA TDaily=TEMP_DIA
New PVSystem.GD_3cde70d543d0626a6342343bf9148c672e8a028537cb026eaa0eb51501d21b83_2 phases=1 bus1=node_419370801.2.4 conn=wye kv=0.1200 pf=1 pmpp=0.99 kva=0.99 irradiance=1 temperature=25 %cutin=20 %cutout=20 effcurve=MyEff P-TCurve=MyPvsT Daily=IRRAD_DIA TDaily=TEMP_DIA
New PVSystem.GD_1884d772ffd252ab4d7c5a27df01655f8c64b816e30710ee2d4d8f13ea79d781_1 phases=1 bus1=node_419160464.1.4 conn=wye kv=0.1200 pf=1 pmpp=0.51 kva=0.51 irradiance=1 temperature=25 %cutin=20 %cutout=20 effcurve=MyEff P-TCurve=MyPvsT Daily=IRRAD_DIA TDaily=TEMP_DIA
New PVSystem.GD_1884d772ffd252ab4d7c5a27df01655f8c64b816e30710ee2d4d8f13ea79d781_2 phases=1 bus1=node_419160464.2.4 conn=wye kv=0.1200 pf=1 pmpp=0.51 kva=0.51 irradiance=1 temperature=25 %cutin=20 %cutout=20 effcurve=MyEff P-TCurve=MyPvsT Daily=IRRAD_DIA TDaily=TEMP_DIA
New PVSystem.GD_1ae7b0f5288e92f48b7f6e1d07748f4868e1a2fcdb58ec2a7c62b1a01165027b_1 phases=1 bus1=node_419160383.1.4 conn=wye kv=0.1200 pf=1 pmpp=0.37 kva=0.37 irradiance=1 temperature=25 %cutin=20 %cutout=20 effcurve=MyEff P-TCurve=MyPvsT Daily=IRRAD_DIA TDaily=TEMP_DIA
New PVSystem.GD_1ae7b0f5288e92f48b7f6e1d07748f4868e1a2fcdb58ec2a7c62b1a01165027b_2 phases=1 bus1=node_419160383.2.4 conn=wye kv=0.1200 pf=1 pmpp=0.37 kva=0.37 irradiance=1 temperature=25 %cutin=20 %cutout=20 effcurve=MyEff P-TCurve=MyPvsT Daily=IRRAD_DIA TDaily=TEMP_DIA
New PVSystem.GD_f53e727cf64e2313dc61f0203f9d32a3c030614f91a04e6736b1a27208b2617d_1 phases=1 bus1=node_419160383.1.4 conn=wye kv=0.1200 pf=1 pmpp=2.82 kva=2.82 irradiance=1 temperature=25 %cutin=20 %cutout=20 effcurve=MyEff P-TCurve=MyPvsT Daily=IRRAD_DIA TDaily=TEMP_DIA
New PVSystem.GD_f53e727cf64e2313dc61f0203f9d32a3c030614f91a04e6736b1a27208b2617d_2 phases=1 bus1=node_419160383.2.4 conn=wye kv=0.1200 pf=1 pmpp=2.82 kva=2.82 irradiance=1 temperature=25 %cutin=20 %cutout=20 effcurve=MyEff P-TCurve=MyPvsT Daily=IRRAD_DIA TDaily=TEMP_DIA
New PVSystem.GD_b92254f75b0f597de1735ea0a6f53310b395dd5db1efb5edf144690c80704a56_1 phases=1 bus1=node_419160383.1.4 conn=wye kv=0.1200 pf=1 pmpp=0.78 kva=0.78 irradiance=1 temperature=25 %cutin=20 %cutout=20 effcurve=MyEff P-TCurve=MyPvsT Daily=IRRAD_DIA TDaily=TEMP_DIA
New PVSystem.GD_b92254f75b0f597de1735ea0a6f53310b395dd5db1efb5edf144690c80704a56_2 phases=1 bus1=node_419160383.2.4 conn=wye kv=0.1200 pf=1 pmpp=0.78 kva=0.78 irradiance=1 temperature=25 %cutin=20 %cutout=20 effcurve=MyEff P-TCurve=MyPvsT Daily=IRRAD_DIA TDaily=TEMP_DIA
New PVSystem.GD_e96e7729f132e1a7d274d5aa3c26e3679e118fb5f36a7c125db54e9b3c24c20e_1 phases=1 bus1=node_419161523.1.4 conn=wye kv=0.1200 pf=1 pmpp=0.60 kva=0.60 irradiance=1 temperature=25 %cutin=20 %cutout=20 effcurve=MyEff P-TCurve=MyPvsT Daily=IRRAD_DIA TDaily=TEMP_DIA
New PVSystem.GD_e96e7729f132e1a7d274d5aa3c26e3679e118fb5f36a7c125db54e9b3c24c20e_2 phases=1 bus1=node_419161523.2.4 conn=wye kv=0.1200 pf=1 pmpp=0.60 kva=0.60 irradiance=1 temperature=25 %cutin=20 %cutout=20 effcurve=MyEff P-TCurve=MyPvsT Daily=IRRAD_DIA TDaily=TEMP_DIA
New PVSystem.GD_5627c27224dc18cd7328f7d36e87ff6981b6c6621a9666b9136a0269af57fae6_1 phases=1 bus1=node_419161523.1.4 conn=wye kv=0.1200 pf=1 pmpp=0.33 kva=0.33 irradiance=1 temperature=25 %cutin=20 %cutout=20 effcurve=MyEff P-TCurve=MyPvsT Daily=IRRAD_DIA TDaily=TEMP_DIA
New PVSystem.GD_5627c27224dc18cd7328f7d36e87ff6981b6c6621a9666b9136a0269af57fae6_2 phases=1 bus1=node_419161523.2.4 conn=wye kv=0.1200 pf=1 pmpp=0.33 kva=0.33 irradiance=1 temperature=25 %cutin=20 %cutout=20 effcurve=MyEff P-TCurve=MyPvsT Daily=IRRAD_DIA TDaily=TEMP_DIA
New PVSystem.GD_2d15bf5dca74bc34fcf73f7a9363198d62169c326b7bc0b230306fb4b11ad7b3_1 phases=1 bus1=node_419162261.1.4 conn=wye kv=0.1200 pf=1 pmpp=0.69 kva=0.69 irradiance=1 temperature=25 %cutin=20 %cutout=20 effcurve=MyEff P-TCurve=MyPvsT Daily=IRRAD_DIA TDaily=TEMP_DIA
New PVSystem.GD_2d15bf5dca74bc34fcf73f7a9363198d62169c326b7bc0b230306fb4b11ad7b3_2 phases=1 bus1=node_419162261.2.4 conn=wye kv=0.1200 pf=1 pmpp=0.69 kva=0.69 irradiance=1 temperature=25 %cutin=20 %cutout=20 effcurve=MyEff P-TCurve=MyPvsT Daily=IRRAD_DIA TDaily=TEMP_DIA
New PVSystem.GD_fd6c4dda62495fb82910be5b566313ddd431ca5497a2c8bd25452248c5076ef5_1 phases=1 bus1=node_419162261.1.4 conn=wye kv=0.1200 pf=1 pmpp=1.44 kva=1.44 irradiance=1 temperature=25 %cutin=20 %cutout=20 effcurve=MyEff P-TCurve=MyPvsT Daily=IRRAD_DIA TDaily=TEMP_DIA
New PVSystem.GD_fd6c4dda62495fb82910be5b566313ddd431ca5497a2c8bd25452248c5076ef5_2 phases=1 bus1=node_419162261.2.4 conn=wye kv=0.1200 pf=1 pmpp=1.44 kva=1.44 irradiance=1 temperature=25 %cutin=20 %cutout=20 effcurve=MyEff P-TCurve=MyPvsT Daily=IRRAD_DIA TDaily=TEMP_DIA
New PVSystem.GD_081276c35625e31766490c7bc19cec519a2fed64f3934dc0ae627117be51756b_1 phases=1 bus1=node_419372076.1.4 conn=wye kv=0.1200 pf=1 pmpp=0.66 kva=0.66 irradiance=1 temperature=25 %cutin=20 %cutout=20 effcurve=MyEff P-TCurve=MyPvsT Daily=IRRAD_DIA TDaily=TEMP_DIA
New PVSystem.GD_081276c35625e31766490c7bc19cec519a2fed64f3934dc0ae627117be51756b_2 phases=1 bus1=node_419372076.2.4 conn=wye kv=0.1200 pf=1 pmpp=0.66 kva=0.66 irradiance=1 temperature=25 %cutin=20 %cutout=20 effcurve=MyEff P-TCurve=MyPvsT Daily=IRRAD_DIA TDaily=TEMP_DIA
New PVSystem.GD_a3a8f339d5f18fb34a64393b47bdd8aa41dc4def1a016fa7ee12c8d0eb57dc47_1 phases=1 bus1=node_419161145.1.4 conn=wye kv=0.1270 pf=1 pmpp=1.05 kva=1.05 irradiance=1 temperature=25 %cutin=20 %cutout=20 effcurve=MyEff P-TCurve=MyPvsT Daily=IRRAD_DIA TDaily=TEMP_DIA
New PVSystem.GD_a3a8f339d5f18fb34a64393b47bdd8aa41dc4def1a016fa7ee12c8d0eb57dc47_2 phases=1 bus1=node_419161145.2.4 conn=wye kv=0.1270 pf=1 pmpp=1.05 kva=1.05 irradiance=1 temperature=25 %cutin=20 %cutout=20 effcurve=MyEff P-TCurve=MyPvsT Daily=IRRAD_DIA TDaily=TEMP_DIA
New PVSystem.GD_a3a8f339d5f18fb34a64393b47bdd8aa41dc4def1a016fa7ee12c8d0eb57dc47_3 phases=1 bus1=node_419161145.3.4 conn=wye kv=0.1270 pf=1 pmpp=1.05 kva=1.05 irradiance=1 temperature=25 %cutin=20 %cutout=20 effcurve=MyEff P-TCurve=MyPvsT Daily=IRRAD_DIA TDaily=TEMP_DIA
New PVSystem.GD_c89d98296b88748a98baf21df890c4a6bd339b22258c35cf214cc005e6097b50_1 phases=1 bus1=node_419193996.1.4 conn=wye kv=0.1270 pf=1 pmpp=0.38 kva=0.38 irradiance=1 temperature=25 %cutin=20 %cutout=20 effcurve=MyEff P-TCurve=MyPvsT Daily=IRRAD_DIA TDaily=TEMP_DIA
New PVSystem.GD_c89d98296b88748a98baf21df890c4a6bd339b22258c35cf214cc005e6097b50_2 phases=1 bus1=node_419193996.2.4 conn=wye kv=0.1270 pf=1 pmpp=0.38 kva=0.38 irradiance=1 temperature=25 %cutin=20 %cutout=20 effcurve=MyEff P-TCurve=MyPvsT Daily=IRRAD_DIA TDaily=TEMP_DIA
New PVSystem.GD_c89d98296b88748a98baf21df890c4a6bd339b22258c35cf214cc005e6097b50_3 phases=1 bus1=node_419193996.3.4 conn=wye kv=0.1270 pf=1 pmpp=0.38 kva=0.38 irradiance=1 temperature=25 %cutin=20 %cutout=20 effcurve=MyEff P-TCurve=MyPvsT Daily=IRRAD_DIA TDaily=TEMP_DIA
New PVSystem.GD_14a3cf4e0995be912c5f26ae5ce6a5fb681a737aa6ab1f9d785cbb369a734505_1 phases=1 bus1=node_419194380.1.4 conn=wye kv=0.1270 pf=1 pmpp=0.40 kva=0.40 irradiance=1 temperature=25 %cutin=20 %cutout=20 effcurve=MyEff P-TCurve=MyPvsT Daily=IRRAD_DIA TDaily=TEMP_DIA
New PVSystem.GD_14a3cf4e0995be912c5f26ae5ce6a5fb681a737aa6ab1f9d785cbb369a734505_2 phases=1 bus1=node_419194380.2.4 conn=wye kv=0.1270 pf=1 pmpp=0.40 kva=0.40 irradiance=1 temperature=25 %cutin=20 %cutout=20 effcurve=MyEff P-TCurve=MyPvsT Daily=IRRAD_DIA TDaily=TEMP_DIA
New PVSystem.GD_14a3cf4e0995be912c5f26ae5ce6a5fb681a737aa6ab1f9d785cbb369a734505_3 phases=1 bus1=node_419194380.3.4 conn=wye kv=0.1270 pf=1 pmpp=0.40 kva=0.40 irradiance=1 temperature=25 %cutin=20 %cutout=20 effcurve=MyEff P-TCurve=MyPvsT Daily=IRRAD_DIA TDaily=TEMP_DIA
New PVSystem.GD_133b42f034de6b0025ff39b93f5838e52e990666c0998a6562e21a865d832ad2_1 phases=1 bus1=node_419194347.1.4 conn=wye kv=0.1200 pf=1 pmpp=1.60 kva=1.60 irradiance=1 temperature=25 %cutin=20 %cutout=20 effcurve=MyEff P-TCurve=MyPvsT Daily=IRRAD_DIA TDaily=TEMP_DIA
New PVSystem.GD_133b42f034de6b0025ff39b93f5838e52e990666c0998a6562e21a865d832ad2_2 phases=1 bus1=node_419194347.2.4 conn=wye kv=0.1200 pf=1 pmpp=1.60 kva=1.60 irradiance=1 temperature=25 %cutin=20 %cutout=20 effcurve=MyEff P-TCurve=MyPvsT Daily=IRRAD_DIA TDaily=TEMP_DIA
New PVSystem.GD_f331c367477159e91809da91d56789e1d59074abadb2f5f402279202d271d790_1 phases=1 bus1=node_2455854691.1.4 conn=wye kv=0.1270 pf=1 pmpp=0.06 kva=0.10 irradiance=1 temperature=25 %cutin=20 %cutout=20 effcurve=MyEff P-TCurve=MyPvsT Daily=IRRAD_DIA TDaily=TEMP_DIA
New PVSystem.GD_f331c367477159e91809da91d56789e1d59074abadb2f5f402279202d271d790_2 phases=1 bus1=node_2455854691.2.4 conn=wye kv=0.1270 pf=1 pmpp=0.06 kva=0.10 irradiance=1 temperature=25 %cutin=20 %cutout=20 effcurve=MyEff P-TCurve=MyPvsT Daily=IRRAD_DIA TDaily=TEMP_DIA
New PVSystem.GD_f331c367477159e91809da91d56789e1d59074abadb2f5f402279202d271d790_3 phases=1 bus1=node_2455854691.3.4 conn=wye kv=0.1270 pf=1 pmpp=0.06 kva=0.10 irradiance=1 temperature=25 %cutin=20 %cutout=20 effcurve=MyEff P-TCurve=MyPvsT Daily=IRRAD_DIA TDaily=TEMP_DIA
New PVSystem.GD_5191b5b96658c12a1955174afcccc7dfa996553fa039329b5a9233eade0d495a_1 phases=1 bus1=node_419162285.1.4 conn=wye kv=0.1200 pf=1 pmpp=1.83 kva=1.83 irradiance=1 temperature=25 %cutin=20 %cutout=20 effcurve=MyEff P-TCurve=MyPvsT Daily=IRRAD_DIA TDaily=TEMP_DIA
New PVSystem.GD_5191b5b96658c12a1955174afcccc7dfa996553fa039329b5a9233eade0d495a_2 phases=1 bus1=node_419162285.2.4 conn=wye kv=0.1200 pf=1 pmpp=1.83 kva=1.83 irradiance=1 temperature=25 %cutin=20 %cutout=20 effcurve=MyEff P-TCurve=MyPvsT Daily=IRRAD_DIA TDaily=TEMP_DIA
New PVSystem.GD_2ac356bdfab76de0123ffa09aa08bbf63054abb470d567a3dc815d573155884b_1 phases=1 bus1=node_419195361.1.4 conn=wye kv=0.1270 pf=1 pmpp=0.76 kva=0.76 irradiance=1 temperature=25 %cutin=20 %cutout=20 effcurve=MyEff P-TCurve=MyPvsT Daily=IRRAD_DIA TDaily=TEMP_DIA
New PVSystem.GD_2ac356bdfab76de0123ffa09aa08bbf63054abb470d567a3dc815d573155884b_2 phases=1 bus1=node_419195361.2.4 conn=wye kv=0.1270 pf=1 pmpp=0.76 kva=0.76 irradiance=1 temperature=25 %cutin=20 %cutout=20 effcurve=MyEff P-TCurve=MyPvsT Daily=IRRAD_DIA TDaily=TEMP_DIA
New PVSystem.GD_2ac356bdfab76de0123ffa09aa08bbf63054abb470d567a3dc815d573155884b_3 phases=1 bus1=node_419195361.3.4 conn=wye kv=0.1270 pf=1 pmpp=0.76 kva=0.76 irradiance=1 temperature=25 %cutin=20 %cutout=20 effcurve=MyEff P-TCurve=MyPvsT Daily=IRRAD_DIA TDaily=TEMP_DIA
New PVSystem.GD_b5e28492c51e7e542fa9664e6cb1a83042a95d5ff5103bc6d2a56dc5c94bfe2a_1 phases=1 bus1=node_419195361.1.4 conn=wye kv=0.1270 pf=1 pmpp=0.40 kva=0.40 irradiance=1 temperature=25 %cutin=20 %cutout=20 effcurve=MyEff P-TCurve=MyPvsT Daily=IRRAD_DIA TDaily=TEMP_DIA
New PVSystem.GD_b5e28492c51e7e542fa9664e6cb1a83042a95d5ff5103bc6d2a56dc5c94bfe2a_2 phases=1 bus1=node_419195361.2.4 conn=wye kv=0.1270 pf=1 pmpp=0.40 kva=0.40 irradiance=1 temperature=25 %cutin=20 %cutout=20 effcurve=MyEff P-TCurve=MyPvsT Daily=IRRAD_DIA TDaily=TEMP_DIA
New PVSystem.GD_b5e28492c51e7e542fa9664e6cb1a83042a95d5ff5103bc6d2a56dc5c94bfe2a_3 phases=1 bus1=node_419195361.3.4 conn=wye kv=0.1270 pf=1 pmpp=0.40 kva=0.40 irradiance=1 temperature=25 %cutin=20 %cutout=20 effcurve=MyEff P-TCurve=MyPvsT Daily=IRRAD_DIA TDaily=TEMP_DIA
New PVSystem.GD_d0e72185ceb51a6179aae874dd3e98ce43ec614a53ac99d1801c5c4948badfd1_1 phases=1 bus1=node_419159453.1.4 conn=wye kv=0.1200 pf=1 pmpp=2.28 kva=2.28 irradiance=1 temperature=25 %cutin=20 %cutout=20 effcurve=MyEff P-TCurve=MyPvsT Daily=IRRAD_DIA TDaily=TEMP_DIA
New PVSystem.GD_d0e72185ceb51a6179aae874dd3e98ce43ec614a53ac99d1801c5c4948badfd1_2 phases=1 bus1=node_419159453.2.4 conn=wye kv=0.1200 pf=1 pmpp=2.28 kva=2.28 irradiance=1 temperature=25 %cutin=20 %cutout=20 effcurve=MyEff P-TCurve=MyPvsT Daily=IRRAD_DIA TDaily=TEMP_DIA
New PVSystem.GD_34d36d8b1435e22f49aa163784c02a5cbcd81971b8289a1e2633725ab896ea32_1 phases=1 bus1=node_419162780.1.4 conn=wye kv=0.1200 pf=1 pmpp=3.23 kva=3.23 irradiance=1 temperature=25 %cutin=20 %cutout=20 effcurve=MyEff P-TCurve=MyPvsT Daily=IRRAD_DIA TDaily=TEMP_DIA
New PVSystem.GD_34d36d8b1435e22f49aa163784c02a5cbcd81971b8289a1e2633725ab896ea32_2 phases=1 bus1=node_419162780.2.4 conn=wye kv=0.1200 pf=1 pmpp=3.23 kva=3.23 irradiance=1 temperature=25 %cutin=20 %cutout=20 effcurve=MyEff P-TCurve=MyPvsT Daily=IRRAD_DIA TDaily=TEMP_DIA
New PVSystem.GD_0d2d84477f8c8bb20f169b8348fb242ba0259a9ae5284c0244578756d77b885b_1 phases=1 bus1=node_411218824.1.4 conn=wye kv=0.1200 pf=1 pmpp=2.63 kva=2.63 irradiance=1 temperature=25 %cutin=20 %cutout=20 effcurve=MyEff P-TCurve=MyPvsT Daily=IRRAD_DIA TDaily=TEMP_DIA
New PVSystem.GD_0d2d84477f8c8bb20f169b8348fb242ba0259a9ae5284c0244578756d77b885b_2 phases=1 bus1=node_411218824.2.4 conn=wye kv=0.1200 pf=1 pmpp=2.63 kva=2.63 irradiance=1 temperature=25 %cutin=20 %cutout=20 effcurve=MyEff P-TCurve=MyPvsT Daily=IRRAD_DIA TDaily=TEMP_DIA
New PVSystem.GD_0fad2a5d1f90a8bb7dfe657d7b50c63ffece03b6312fd543c2e9896083220119_1 phases=1 bus1=node_419162312.1.4 conn=wye kv=0.1100 pf=1 pmpp=8.03 kva=8.03 irradiance=1 temperature=25 %cutin=20 %cutout=20 effcurve=MyEff P-TCurve=MyPvsT Daily=IRRAD_DIA TDaily=TEMP_DIA
New PVSystem.GD_0fad2a5d1f90a8bb7dfe657d7b50c63ffece03b6312fd543c2e9896083220119_2 phases=1 bus1=node_419162312.2.4 conn=wye kv=0.1100 pf=1 pmpp=8.03 kva=8.03 irradiance=1 temperature=25 %cutin=20 %cutout=20 effcurve=MyEff P-TCurve=MyPvsT Daily=IRRAD_DIA TDaily=TEMP_DIA
New PVSystem.GD_dc363d8a4e0bae6aa16f17831f35749e1052e69a3a195b36fdad91f438db2ed5_1 phases=1 bus1=node_419162312.1.4 conn=wye kv=0.1100 pf=1 pmpp=0.77 kva=0.77 irradiance=1 temperature=25 %cutin=20 %cutout=20 effcurve=MyEff P-TCurve=MyPvsT Daily=IRRAD_DIA TDaily=TEMP_DIA
New PVSystem.GD_dc363d8a4e0bae6aa16f17831f35749e1052e69a3a195b36fdad91f438db2ed5_2 phases=1 bus1=node_419162312.2.4 conn=wye kv=0.1100 pf=1 pmpp=0.77 kva=0.77 irradiance=1 temperature=25 %cutin=20 %cutout=20 effcurve=MyEff P-TCurve=MyPvsT Daily=IRRAD_DIA TDaily=TEMP_DIA
New PVSystem.GD_55e19728d4dfba5222a992062b1b6a9232c4e77aff8bb695b1da77d8cb8a62be_1 phases=1 bus1=node_411503204.1.4 conn=wye kv=0.1200 pf=1 pmpp=3.09 kva=3.09 irradiance=1 temperature=25 %cutin=20 %cutout=20 effcurve=MyEff P-TCurve=MyPvsT Daily=IRRAD_DIA TDaily=TEMP_DIA
New PVSystem.GD_55e19728d4dfba5222a992062b1b6a9232c4e77aff8bb695b1da77d8cb8a62be_2 phases=1 bus1=node_411503204.2.4 conn=wye kv=0.1200 pf=1 pmpp=3.09 kva=3.09 irradiance=1 temperature=25 %cutin=20 %cutout=20 effcurve=MyEff P-TCurve=MyPvsT Daily=IRRAD_DIA TDaily=TEMP_DIA
New PVSystem.GD_9cb56361b910c3b846ce86edeaa8cedca1bf3bd3f39542642752a3c35f661085_1 phases=1 bus1=node_419161541.1.4 conn=wye kv=0.1200 pf=1 pmpp=1.08 kva=1.08 irradiance=1 temperature=25 %cutin=20 %cutout=20 effcurve=MyEff P-TCurve=MyPvsT Daily=IRRAD_DIA TDaily=TEMP_DIA
New PVSystem.GD_9cb56361b910c3b846ce86edeaa8cedca1bf3bd3f39542642752a3c35f661085_2 phases=1 bus1=node_419161541.2.4 conn=wye kv=0.1200 pf=1 pmpp=1.08 kva=1.08 irradiance=1 temperature=25 %cutin=20 %cutout=20 effcurve=MyEff P-TCurve=MyPvsT Daily=IRRAD_DIA TDaily=TEMP_DIA
New PVSystem.GD_c12d43bcdf7807f2ceacbf4eaf28d9be167cab7f7fdc0ca4175bd53a0112245f_1 phases=1 bus1=node_419163026.1.4 conn=wye kv=0.1200 pf=1 pmpp=0.63 kva=0.63 irradiance=1 temperature=25 %cutin=20 %cutout=20 effcurve=MyEff P-TCurve=MyPvsT Daily=IRRAD_DIA TDaily=TEMP_DIA
New PVSystem.GD_c12d43bcdf7807f2ceacbf4eaf28d9be167cab7f7fdc0ca4175bd53a0112245f_2 phases=1 bus1=node_419163026.2.4 conn=wye kv=0.1200 pf=1 pmpp=0.63 kva=0.63 irradiance=1 temperature=25 %cutin=20 %cutout=20 effcurve=MyEff P-TCurve=MyPvsT Daily=IRRAD_DIA TDaily=TEMP_DIA
New PVSystem.GD_c0d3724025996c7bcca43172a6f2871449a8d3e8ea0a34e92b7218599fa544a0_1 phases=1 bus1=node_419162462.1.4 conn=wye kv=0.1270 pf=1 pmpp=0.35 kva=0.35 irradiance=1 temperature=25 %cutin=20 %cutout=20 effcurve=MyEff P-TCurve=MyPvsT Daily=IRRAD_DIA TDaily=TEMP_DIA
New PVSystem.GD_c0d3724025996c7bcca43172a6f2871449a8d3e8ea0a34e92b7218599fa544a0_2 phases=1 bus1=node_419162462.2.4 conn=wye kv=0.1270 pf=1 pmpp=0.35 kva=0.35 irradiance=1 temperature=25 %cutin=20 %cutout=20 effcurve=MyEff P-TCurve=MyPvsT Daily=IRRAD_DIA TDaily=TEMP_DIA
New PVSystem.GD_c0d3724025996c7bcca43172a6f2871449a8d3e8ea0a34e92b7218599fa544a0_3 phases=1 bus1=node_419162462.3.4 conn=wye kv=0.1270 pf=1 pmpp=0.35 kva=0.35 irradiance=1 temperature=25 %cutin=20 %cutout=20 effcurve=MyEff P-TCurve=MyPvsT Daily=IRRAD_DIA TDaily=TEMP_DIA
New PVSystem.GD_d6200e8dad78f34a94ad6b161943696e31eda759a94f15d216afb5d27b789872_1 phases=1 bus1=node_419161133.1.4 conn=wye kv=0.1200 pf=1 pmpp=0.58 kva=0.58 irradiance=1 temperature=25 %cutin=20 %cutout=20 effcurve=MyEff P-TCurve=MyPvsT Daily=IRRAD_DIA TDaily=TEMP_DIA
New PVSystem.GD_d6200e8dad78f34a94ad6b161943696e31eda759a94f15d216afb5d27b789872_2 phases=1 bus1=node_419161133.2.4 conn=wye kv=0.1200 pf=1 pmpp=0.58 kva=0.58 irradiance=1 temperature=25 %cutin=20 %cutout=20 effcurve=MyEff P-TCurve=MyPvsT Daily=IRRAD_DIA TDaily=TEMP_DIA
New PVSystem.GD_312d2eb9b7b2484f0993b7daf5b0468e28f9fc7d119a0448c3a5b36d662977cb_1 phases=1 bus1=node_419161133.1.4 conn=wye kv=0.1200 pf=1 pmpp=0.83 kva=0.83 irradiance=1 temperature=25 %cutin=20 %cutout=20 effcurve=MyEff P-TCurve=MyPvsT Daily=IRRAD_DIA TDaily=TEMP_DIA
New PVSystem.GD_312d2eb9b7b2484f0993b7daf5b0468e28f9fc7d119a0448c3a5b36d662977cb_2 phases=1 bus1=node_419161133.2.4 conn=wye kv=0.1200 pf=1 pmpp=0.83 kva=0.83 irradiance=1 temperature=25 %cutin=20 %cutout=20 effcurve=MyEff P-TCurve=MyPvsT Daily=IRRAD_DIA TDaily=TEMP_DIA
New PVSystem.GD_92292b60acd8546d78d8324c1dc8f67caedd6ec3f88a2c5295c14b709e655bf9_1 phases=1 bus1=node_412398824.1.4 conn=wye kv=0.1270 pf=1 pmpp=0.23 kva=0.23 irradiance=1 temperature=25 %cutin=20 %cutout=20 effcurve=MyEff P-TCurve=MyPvsT Daily=IRRAD_DIA TDaily=TEMP_DIA
New PVSystem.GD_92292b60acd8546d78d8324c1dc8f67caedd6ec3f88a2c5295c14b709e655bf9_2 phases=1 bus1=node_412398824.2.4 conn=wye kv=0.1270 pf=1 pmpp=0.23 kva=0.23 irradiance=1 temperature=25 %cutin=20 %cutout=20 effcurve=MyEff P-TCurve=MyPvsT Daily=IRRAD_DIA TDaily=TEMP_DIA
New PVSystem.GD_92292b60acd8546d78d8324c1dc8f67caedd6ec3f88a2c5295c14b709e655bf9_3 phases=1 bus1=node_412398824.3.4 conn=wye kv=0.1270 pf=1 pmpp=0.23 kva=0.23 irradiance=1 temperature=25 %cutin=20 %cutout=20 effcurve=MyEff P-TCurve=MyPvsT Daily=IRRAD_DIA TDaily=TEMP_DIA
New PVSystem.GD_4b4b5e38e6fbf0e62643ba1f7b41f7a2e48c1bad2fbdc67cde2a022d3c2aa7cd_1 phases=1 bus1=node_412398824.1.4 conn=wye kv=0.1270 pf=1 pmpp=0.97 kva=0.97 irradiance=1 temperature=25 %cutin=20 %cutout=20 effcurve=MyEff P-TCurve=MyPvsT Daily=IRRAD_DIA TDaily=TEMP_DIA
New PVSystem.GD_4b4b5e38e6fbf0e62643ba1f7b41f7a2e48c1bad2fbdc67cde2a022d3c2aa7cd_2 phases=1 bus1=node_412398824.2.4 conn=wye kv=0.1270 pf=1 pmpp=0.97 kva=0.97 irradiance=1 temperature=25 %cutin=20 %cutout=20 effcurve=MyEff P-TCurve=MyPvsT Daily=IRRAD_DIA TDaily=TEMP_DIA
New PVSystem.GD_4b4b5e38e6fbf0e62643ba1f7b41f7a2e48c1bad2fbdc67cde2a022d3c2aa7cd_3 phases=1 bus1=node_412398824.3.4 conn=wye kv=0.1270 pf=1 pmpp=0.97 kva=0.97 irradiance=1 temperature=25 %cutin=20 %cutout=20 effcurve=MyEff P-TCurve=MyPvsT Daily=IRRAD_DIA TDaily=TEMP_DIA
New PVSystem.GD_a3a6aa4f08882d3775f8491cca98f8df6c4809b1667510fdd5da33533805cd7d_1 phases=1 bus1=node_420108163.1.4 conn=wye kv=0.1270 pf=1 pmpp=0.19 kva=0.19 irradiance=1 temperature=25 %cutin=20 %cutout=20 effcurve=MyEff P-TCurve=MyPvsT Daily=IRRAD_DIA TDaily=TEMP_DIA
New PVSystem.GD_a3a6aa4f08882d3775f8491cca98f8df6c4809b1667510fdd5da33533805cd7d_2 phases=1 bus1=node_420108163.2.4 conn=wye kv=0.1270 pf=1 pmpp=0.19 kva=0.19 irradiance=1 temperature=25 %cutin=20 %cutout=20 effcurve=MyEff P-TCurve=MyPvsT Daily=IRRAD_DIA TDaily=TEMP_DIA
New PVSystem.GD_a3a6aa4f08882d3775f8491cca98f8df6c4809b1667510fdd5da33533805cd7d_3 phases=1 bus1=node_420108163.3.4 conn=wye kv=0.1270 pf=1 pmpp=0.19 kva=0.19 irradiance=1 temperature=25 %cutin=20 %cutout=20 effcurve=MyEff P-TCurve=MyPvsT Daily=IRRAD_DIA TDaily=TEMP_DIA
New PVSystem.GD_fa6146ff154dd9488cf312b3e6dff931672492a5b0fd29d19dd17594b111e7cd_1 phases=1 bus1=node_420972787.1.4 conn=wye kv=0.1270 pf=1 pmpp=0.18 kva=0.18 irradiance=1 temperature=25 %cutin=20 %cutout=20 effcurve=MyEff P-TCurve=MyPvsT Daily=IRRAD_DIA TDaily=TEMP_DIA
New PVSystem.GD_fa6146ff154dd9488cf312b3e6dff931672492a5b0fd29d19dd17594b111e7cd_2 phases=1 bus1=node_420972787.2.4 conn=wye kv=0.1270 pf=1 pmpp=0.18 kva=0.18 irradiance=1 temperature=25 %cutin=20 %cutout=20 effcurve=MyEff P-TCurve=MyPvsT Daily=IRRAD_DIA TDaily=TEMP_DIA
New PVSystem.GD_fa6146ff154dd9488cf312b3e6dff931672492a5b0fd29d19dd17594b111e7cd_3 phases=1 bus1=node_420972787.3.4 conn=wye kv=0.1270 pf=1 pmpp=0.18 kva=0.18 irradiance=1 temperature=25 %cutin=20 %cutout=20 effcurve=MyEff P-TCurve=MyPvsT Daily=IRRAD_DIA TDaily=TEMP_DIA
New PVSystem.GD_90d8d4191cf359cfee15955665b74f929bd942a9c2f21c50b220b969031e9b87_1 phases=1 bus1=node_420972538.1.4 conn=wye kv=0.1270 pf=1 pmpp=0.15 kva=0.15 irradiance=1 temperature=25 %cutin=20 %cutout=20 effcurve=MyEff P-TCurve=MyPvsT Daily=IRRAD_DIA TDaily=TEMP_DIA
New PVSystem.GD_90d8d4191cf359cfee15955665b74f929bd942a9c2f21c50b220b969031e9b87_2 phases=1 bus1=node_420972538.2.4 conn=wye kv=0.1270 pf=1 pmpp=0.15 kva=0.15 irradiance=1 temperature=25 %cutin=20 %cutout=20 effcurve=MyEff P-TCurve=MyPvsT Daily=IRRAD_DIA TDaily=TEMP_DIA
New PVSystem.GD_90d8d4191cf359cfee15955665b74f929bd942a9c2f21c50b220b969031e9b87_3 phases=1 bus1=node_420972538.3.4 conn=wye kv=0.1270 pf=1 pmpp=0.15 kva=0.15 irradiance=1 temperature=25 %cutin=20 %cutout=20 effcurve=MyEff P-TCurve=MyPvsT Daily=IRRAD_DIA TDaily=TEMP_DIA
New PVSystem.GD_1e1d4a70d5012bfa437008ba2ce535d184e952981581254dc83c7b3b6e69e44d_1 phases=1 bus1=node_412398401.1.4 conn=wye kv=0.1270 pf=1 pmpp=0.39 kva=0.39 irradiance=1 temperature=25 %cutin=20 %cutout=20 effcurve=MyEff P-TCurve=MyPvsT Daily=IRRAD_DIA TDaily=TEMP_DIA
New PVSystem.GD_1e1d4a70d5012bfa437008ba2ce535d184e952981581254dc83c7b3b6e69e44d_2 phases=1 bus1=node_412398401.2.4 conn=wye kv=0.1270 pf=1 pmpp=0.39 kva=0.39 irradiance=1 temperature=25 %cutin=20 %cutout=20 effcurve=MyEff P-TCurve=MyPvsT Daily=IRRAD_DIA TDaily=TEMP_DIA
New PVSystem.GD_1e1d4a70d5012bfa437008ba2ce535d184e952981581254dc83c7b3b6e69e44d_3 phases=1 bus1=node_412398401.3.4 conn=wye kv=0.1270 pf=1 pmpp=0.39 kva=0.39 irradiance=1 temperature=25 %cutin=20 %cutout=20 effcurve=MyEff P-TCurve=MyPvsT Daily=IRRAD_DIA TDaily=TEMP_DIA
New PVSystem.GD_d47277c4fe57e45f28e4a9a6803307cc1f7e2fcb9b491e72bec02e656e238daf_1 phases=1 bus1=node_419161517.1.4 conn=wye kv=0.1200 pf=1 pmpp=0.99 kva=0.99 irradiance=1 temperature=25 %cutin=20 %cutout=20 effcurve=MyEff P-TCurve=MyPvsT Daily=IRRAD_DIA TDaily=TEMP_DIA
New PVSystem.GD_d47277c4fe57e45f28e4a9a6803307cc1f7e2fcb9b491e72bec02e656e238daf_2 phases=1 bus1=node_419161517.2.4 conn=wye kv=0.1200 pf=1 pmpp=0.99 kva=0.99 irradiance=1 temperature=25 %cutin=20 %cutout=20 effcurve=MyEff P-TCurve=MyPvsT Daily=IRRAD_DIA TDaily=TEMP_DIA
New PVSystem.GD_dede8e6e767aab7772292eeafe0278024e05c678f90ff9917dbe6e2133aac959_1 phases=1 bus1=node_412330336.1.4 conn=wye kv=0.1270 pf=1 pmpp=1.54 kva=1.54 irradiance=1 temperature=25 %cutin=20 %cutout=20 effcurve=MyEff P-TCurve=MyPvsT Daily=IRRAD_DIA TDaily=TEMP_DIA
New PVSystem.GD_dede8e6e767aab7772292eeafe0278024e05c678f90ff9917dbe6e2133aac959_2 phases=1 bus1=node_412330336.2.4 conn=wye kv=0.1270 pf=1 pmpp=1.54 kva=1.54 irradiance=1 temperature=25 %cutin=20 %cutout=20 effcurve=MyEff P-TCurve=MyPvsT Daily=IRRAD_DIA TDaily=TEMP_DIA
New PVSystem.GD_dede8e6e767aab7772292eeafe0278024e05c678f90ff9917dbe6e2133aac959_3 phases=1 bus1=node_412330336.3.4 conn=wye kv=0.1270 pf=1 pmpp=1.54 kva=1.54 irradiance=1 temperature=25 %cutin=20 %cutout=20 effcurve=MyEff P-TCurve=MyPvsT Daily=IRRAD_DIA TDaily=TEMP_DIA
New PVSystem.GD_c04cd64c94c9a5fa7cb4097845a9cbc0e79de6b636563470745c1c3a09a1432c_1 phases=1 bus1=node_419162978.1.4 conn=wye kv=0.1200 pf=1 pmpp=0.66 kva=0.66 irradiance=1 temperature=25 %cutin=20 %cutout=20 effcurve=MyEff P-TCurve=MyPvsT Daily=IRRAD_DIA TDaily=TEMP_DIA
New PVSystem.GD_c04cd64c94c9a5fa7cb4097845a9cbc0e79de6b636563470745c1c3a09a1432c_2 phases=1 bus1=node_419162978.2.4 conn=wye kv=0.1200 pf=1 pmpp=0.66 kva=0.66 irradiance=1 temperature=25 %cutin=20 %cutout=20 effcurve=MyEff P-TCurve=MyPvsT Daily=IRRAD_DIA TDaily=TEMP_DIA
New PVSystem.GD_12925923021790e8ac4f7087ae7834538655491661952ec401c2accc506a1d1e_1 phases=1 bus1=node_419160473.1.4 conn=wye kv=0.1200 pf=1 pmpp=1.11 kva=1.11 irradiance=1 temperature=25 %cutin=20 %cutout=20 effcurve=MyEff P-TCurve=MyPvsT Daily=IRRAD_DIA TDaily=TEMP_DIA
New PVSystem.GD_12925923021790e8ac4f7087ae7834538655491661952ec401c2accc506a1d1e_2 phases=1 bus1=node_419160473.2.4 conn=wye kv=0.1200 pf=1 pmpp=1.11 kva=1.11 irradiance=1 temperature=25 %cutin=20 %cutout=20 effcurve=MyEff P-TCurve=MyPvsT Daily=IRRAD_DIA TDaily=TEMP_DIA
New PVSystem.GD_b12423d62c61e7670161a3ad786e609f38b297c0ba908d91996f2fcc1f9dc1bf_1 phases=1 bus1=node_420972301.1.4 conn=wye kv=0.1270 pf=1 pmpp=0.44 kva=0.44 irradiance=1 temperature=25 %cutin=20 %cutout=20 effcurve=MyEff P-TCurve=MyPvsT Daily=IRRAD_DIA TDaily=TEMP_DIA
New PVSystem.GD_b12423d62c61e7670161a3ad786e609f38b297c0ba908d91996f2fcc1f9dc1bf_2 phases=1 bus1=node_420972301.2.4 conn=wye kv=0.1270 pf=1 pmpp=0.44 kva=0.44 irradiance=1 temperature=25 %cutin=20 %cutout=20 effcurve=MyEff P-TCurve=MyPvsT Daily=IRRAD_DIA TDaily=TEMP_DIA
New PVSystem.GD_b12423d62c61e7670161a3ad786e609f38b297c0ba908d91996f2fcc1f9dc1bf_3 phases=1 bus1=node_420972301.3.4 conn=wye kv=0.1270 pf=1 pmpp=0.44 kva=0.44 irradiance=1 temperature=25 %cutin=20 %cutout=20 effcurve=MyEff P-TCurve=MyPvsT Daily=IRRAD_DIA TDaily=TEMP_DIA
New PVSystem.GD_64956e84e61aabc3cb042202bae7faebbfcb0c037a9e19e351318ee87df60d3f_1 phases=1 bus1=node_2139915877.1.4 conn=wye kv=0.1270 pf=1 pmpp=1.60 kva=1.60 irradiance=1 temperature=25 %cutin=20 %cutout=20 effcurve=MyEff P-TCurve=MyPvsT Daily=IRRAD_DIA TDaily=TEMP_DIA
New PVSystem.GD_64956e84e61aabc3cb042202bae7faebbfcb0c037a9e19e351318ee87df60d3f_2 phases=1 bus1=node_2139915877.2.4 conn=wye kv=0.1270 pf=1 pmpp=1.60 kva=1.60 irradiance=1 temperature=25 %cutin=20 %cutout=20 effcurve=MyEff P-TCurve=MyPvsT Daily=IRRAD_DIA TDaily=TEMP_DIA
New PVSystem.GD_64956e84e61aabc3cb042202bae7faebbfcb0c037a9e19e351318ee87df60d3f_3 phases=1 bus1=node_2139915877.3.4 conn=wye kv=0.1270 pf=1 pmpp=1.60 kva=1.60 irradiance=1 temperature=25 %cutin=20 %cutout=20 effcurve=MyEff P-TCurve=MyPvsT Daily=IRRAD_DIA TDaily=TEMP_DIA
New PVSystem.GD_5854dbb413d7c1b4da1cdf2c1202f4a6229a715d7d6ae9f42da003e2c022002a_1 phases=1 bus1=node_419160374.1.4 conn=wye kv=0.1200 pf=1 pmpp=1.04 kva=1.04 irradiance=1 temperature=25 %cutin=20 %cutout=20 effcurve=MyEff P-TCurve=MyPvsT Daily=IRRAD_DIA TDaily=TEMP_DIA
New PVSystem.GD_5854dbb413d7c1b4da1cdf2c1202f4a6229a715d7d6ae9f42da003e2c022002a_2 phases=1 bus1=node_419160374.2.4 conn=wye kv=0.1200 pf=1 pmpp=1.04 kva=1.04 irradiance=1 temperature=25 %cutin=20 %cutout=20 effcurve=MyEff P-TCurve=MyPvsT Daily=IRRAD_DIA TDaily=TEMP_DIA
New PVSystem.GD_676a708d8923849645c302ba51ee052c731d78a95cdfe980781e413b69758780_1 phases=1 bus1=node_2879535175.1.4 conn=wye kv=0.1270 pf=1 pmpp=15.30 kva=15.30 irradiance=1 temperature=25 %cutin=20 %cutout=20 effcurve=MyEff P-TCurve=MyPvsT Daily=IRRAD_DIA TDaily=TEMP_DIA
New PVSystem.GD_676a708d8923849645c302ba51ee052c731d78a95cdfe980781e413b69758780_2 phases=1 bus1=node_2879535175.2.4 conn=wye kv=0.1270 pf=1 pmpp=15.30 kva=15.30 irradiance=1 temperature=25 %cutin=20 %cutout=20 effcurve=MyEff P-TCurve=MyPvsT Daily=IRRAD_DIA TDaily=TEMP_DIA
New PVSystem.GD_676a708d8923849645c302ba51ee052c731d78a95cdfe980781e413b69758780_3 phases=1 bus1=node_2879535175.3.4 conn=wye kv=0.1270 pf=1 pmpp=15.30 kva=15.30 irradiance=1 temperature=25 %cutin=20 %cutout=20 effcurve=MyEff P-TCurve=MyPvsT Daily=IRRAD_DIA TDaily=TEMP_DIA
New PVSystem.GD_876ad7d82328754e6085281de46132ecd800251fe93f639f51c9dc13f2e7a2f5_1 phases=1 bus1=node_1183052860.1.4 conn=wye kv=0.1270 pf=1 pmpp=8.20 kva=8.20 irradiance=1 temperature=25 %cutin=20 %cutout=20 effcurve=MyEff P-TCurve=MyPvsT Daily=IRRAD_DIA TDaily=TEMP_DIA
New PVSystem.GD_876ad7d82328754e6085281de46132ecd800251fe93f639f51c9dc13f2e7a2f5_2 phases=1 bus1=node_1183052860.2.4 conn=wye kv=0.1270 pf=1 pmpp=8.20 kva=8.20 irradiance=1 temperature=25 %cutin=20 %cutout=20 effcurve=MyEff P-TCurve=MyPvsT Daily=IRRAD_DIA TDaily=TEMP_DIA
New PVSystem.GD_876ad7d82328754e6085281de46132ecd800251fe93f639f51c9dc13f2e7a2f5_3 phases=1 bus1=node_1183052860.3.4 conn=wye kv=0.1270 pf=1 pmpp=8.20 kva=8.20 irradiance=1 temperature=25 %cutin=20 %cutout=20 effcurve=MyEff P-TCurve=MyPvsT Daily=IRRAD_DIA TDaily=TEMP_DIA
New PVSystem.GD_9b5aa52a9ab357c3e9ded23c9b92c258e1a007a8f85bfd3c364ca510b3677559_1 phases=1 bus1=node_472816334.1.4 conn=wye kv=0.1270 pf=1 pmpp=9.77 kva=9.77 irradiance=1 temperature=25 %cutin=20 %cutout=20 effcurve=MyEff P-TCurve=MyPvsT Daily=IRRAD_DIA TDaily=TEMP_DIA
New PVSystem.GD_9b5aa52a9ab357c3e9ded23c9b92c258e1a007a8f85bfd3c364ca510b3677559_2 phases=1 bus1=node_472816334.2.4 conn=wye kv=0.1270 pf=1 pmpp=9.77 kva=9.77 irradiance=1 temperature=25 %cutin=20 %cutout=20 effcurve=MyEff P-TCurve=MyPvsT Daily=IRRAD_DIA TDaily=TEMP_DIA
New PVSystem.GD_9b5aa52a9ab357c3e9ded23c9b92c258e1a007a8f85bfd3c364ca510b3677559_3 phases=1 bus1=node_472816334.3.4 conn=wye kv=0.1270 pf=1 pmpp=9.77 kva=9.77 irradiance=1 temperature=25 %cutin=20 %cutout=20 effcurve=MyEff P-TCurve=MyPvsT Daily=IRRAD_DIA TDaily=TEMP_DIA
New PVSystem.GD_100302f6e21168ea348d91d02dcca7b62e063d4096aef7c420110a28c114141c_1 phases=1 bus1=node_420972349.1.4 conn=wye kv=0.1270 pf=1 pmpp=0.44 kva=0.44 irradiance=1 temperature=25 %cutin=20 %cutout=20 effcurve=MyEff P-TCurve=MyPvsT Daily=IRRAD_DIA TDaily=TEMP_DIA
New PVSystem.GD_100302f6e21168ea348d91d02dcca7b62e063d4096aef7c420110a28c114141c_2 phases=1 bus1=node_420972349.2.4 conn=wye kv=0.1270 pf=1 pmpp=0.44 kva=0.44 irradiance=1 temperature=25 %cutin=20 %cutout=20 effcurve=MyEff P-TCurve=MyPvsT Daily=IRRAD_DIA TDaily=TEMP_DIA
New PVSystem.GD_100302f6e21168ea348d91d02dcca7b62e063d4096aef7c420110a28c114141c_3 phases=1 bus1=node_420972349.3.4 conn=wye kv=0.1270 pf=1 pmpp=0.44 kva=0.44 irradiance=1 temperature=25 %cutin=20 %cutout=20 effcurve=MyEff P-TCurve=MyPvsT Daily=IRRAD_DIA TDaily=TEMP_DIA
New PVSystem.GD_9b8233fcc16d576a190a6288610768cd72189e7d47ad568212e307ee4c29cf15_1 phases=1 bus1=node_2879535260.1.4 conn=wye kv=0.1270 pf=1 pmpp=2.40 kva=2.40 irradiance=1 temperature=25 %cutin=20 %cutout=20 effcurve=MyEff P-TCurve=MyPvsT Daily=IRRAD_DIA TDaily=TEMP_DIA
New PVSystem.GD_9b8233fcc16d576a190a6288610768cd72189e7d47ad568212e307ee4c29cf15_2 phases=1 bus1=node_2879535260.2.4 conn=wye kv=0.1270 pf=1 pmpp=2.40 kva=2.40 irradiance=1 temperature=25 %cutin=20 %cutout=20 effcurve=MyEff P-TCurve=MyPvsT Daily=IRRAD_DIA TDaily=TEMP_DIA
New PVSystem.GD_9b8233fcc16d576a190a6288610768cd72189e7d47ad568212e307ee4c29cf15_3 phases=1 bus1=node_2879535260.3.4 conn=wye kv=0.1270 pf=1 pmpp=2.40 kva=2.40 irradiance=1 temperature=25 %cutin=20 %cutout=20 effcurve=MyEff P-TCurve=MyPvsT Daily=IRRAD_DIA TDaily=TEMP_DIA
New PVSystem.GD_c1788c92a43ef0ff532b57c83b7a8b9e85e4cc6c68bc0b6e7117e8d8fcfa6dcd_1 phases=1 bus1=node_419193924.1.4 conn=wye kv=0.1200 pf=1 pmpp=4.26 kva=4.26 irradiance=1 temperature=25 %cutin=20 %cutout=20 effcurve=MyEff P-TCurve=MyPvsT Daily=IRRAD_DIA TDaily=TEMP_DIA
New PVSystem.GD_c1788c92a43ef0ff532b57c83b7a8b9e85e4cc6c68bc0b6e7117e8d8fcfa6dcd_2 phases=1 bus1=node_419193924.2.4 conn=wye kv=0.1200 pf=1 pmpp=4.26 kva=4.26 irradiance=1 temperature=25 %cutin=20 %cutout=20 effcurve=MyEff P-TCurve=MyPvsT Daily=IRRAD_DIA TDaily=TEMP_DIA
New PVSystem.GD_5373a90a8599dc0410c4705d738545c16e63930bfe46f3b8b13344dadcc96c0e_1 phases=1 bus1=node_2822649298.1.4 conn=wye kv=0.1200 pf=1 pmpp=8.39 kva=8.39 irradiance=1 temperature=25 %cutin=20 %cutout=20 effcurve=MyEff P-TCurve=MyPvsT Daily=IRRAD_DIA TDaily=TEMP_DIA
New PVSystem.GD_5373a90a8599dc0410c4705d738545c16e63930bfe46f3b8b13344dadcc96c0e_2 phases=1 bus1=node_2822649298.2.4 conn=wye kv=0.1200 pf=1 pmpp=8.39 kva=8.39 irradiance=1 temperature=25 %cutin=20 %cutout=20 effcurve=MyEff P-TCurve=MyPvsT Daily=IRRAD_DIA TDaily=TEMP_DIA
New PVSystem.GD_18fceedf1a51184b32aef2d48b1bfda700a386be75fa08e388df97533ae56c94_1 phases=1 bus1=node_419160650.1.4 conn=wye kv=0.1200 pf=1 pmpp=2.50 kva=2.50 irradiance=1 temperature=25 %cutin=20 %cutout=20 effcurve=MyEff P-TCurve=MyPvsT Daily=IRRAD_DIA TDaily=TEMP_DIA
New PVSystem.GD_18fceedf1a51184b32aef2d48b1bfda700a386be75fa08e388df97533ae56c94_2 phases=1 bus1=node_419160650.2.4 conn=wye kv=0.1200 pf=1 pmpp=2.50 kva=2.50 irradiance=1 temperature=25 %cutin=20 %cutout=20 effcurve=MyEff P-TCurve=MyPvsT Daily=IRRAD_DIA TDaily=TEMP_DIA
New PVSystem.GD_dfbc61e27e8976e9f493e809328b5a40751774d8312f13b18adb26e385830524_1 phases=1 bus1=node_419162768.1.4 conn=wye kv=0.1200 pf=1 pmpp=11.99 kva=11.99 irradiance=1 temperature=25 %cutin=20 %cutout=20 effcurve=MyEff P-TCurve=MyPvsT Daily=IRRAD_DIA TDaily=TEMP_DIA
